Circuit: * Z:\home\david\ecse-toy\LTSpice_Sim\PreampModel.asc

WARNING: Node PREAMP_OUT is floating.

WARNING: Less than two connections to node PREAMP_OUT.  This node is used by C2.
Direct Newton iteration for .op point succeeded.

Date: Thu Sep 11 16:06:09 2025
Total elapsed time: 0.181 seconds.

tnom = 27
temp = 27
method = modified trap
totiter = 21841
traniter = 21837
tranpoints = 10021
accept = 10021
rejected = 0
matrix size = 11
fillins = 0
solver = Normal
Matrix Compiler1: 476 bytes object code size  0.4/0.3/[0.3]
Matrix Compiler2: off  [0.3]/0.4/0.4

